mol_m7G_LNA
  PyMOL2.5          3D                             0

 79 85  0  0  0  0  0  0  0  0999 V2000
   45.2900   36.3200   33.4800 P   0  0  0  0  0  0  0  0  0  0  0  0
   45.4100   36.1300   30.7700 P   0  0  0  0  0  0  0  0  0  0  0  0
   45.7500   33.7100   29.9100 P   0  0  0  0  0  0  0  0  0  0  0  0
   48.7700   34.7900   36.7900 C   0  0  0  0  0  0  0  0  0  0  0  0
   47.1900   34.6600   41.8800 N   0  0  0  0  0  0  0  0  0  0  0  0
   50.4000   33.0800   36.3400 O   0  0  0  0  0  0  0  0  0  0  0  0
   46.6100   28.2700   31.7700 C   0  0  0  0  0  0  0  0  0  0  0  0
   49.3600   24.0800   32.7300 N   0  0  0  0  0  0  0  0  0  0  0  0
   44.4400   28.3600   31.3600 O   0  0  0  0  0  0  0  0  0  0  0  0
   48.4900   34.2400   41.3000 C   0  0  0  0  0  0  0  0  0  0  0  0
   49.5100   33.7200   42.1200 N   0  0  0  0  0  0  0  0  0  0  0  0
   48.6600   31.9700   34.4700 O   0  0  0  0  0  0  0  0  0  0  0  0
   48.9900   33.2900   36.4900 C   0  0  0  0  0  0  0  0  0  0  0  0
   48.6700   34.3600   39.9900 N   0  0  0  0  0  0  0  0  0  0  0  0
   43.8100   29.9200   33.5900 O   0  0  0  0  0  0  0  0  0  0  0  0
   45.2900   28.1800   32.5600 C   0  0  0  0  0  0  0  0  0  0  0  0
   47.5800   25.4900   31.8500 N   0  0  0  0  0  0  0  0  0  0  0  0
   48.5100   35.4800   35.5300 O   0  0  0  0  0  0  0  0  0  0  0  0
   48.1500   24.2300   31.9700 C   0  0  0  0  0  0  0  0  0  0  0  0
   51.1900   24.8800   34.0800 N   0  0  0  0  0  0  0  0  0  0  0  0
   46.7800   29.7000   31.4300 O   0  0  0  0  0  0  0  0  0  0  0  0
   48.2700   33.1500   35.1900 C   0  0  0  0  0  0  0  0  0  0  0  0
   45.5000   35.8200   38.5800 N   0  0  0  0  0  0  0  0  0  0  0  0
   45.0800   35.5100   41.6900 O   0  0  0  0  0  0  0  0  0  0  0  0
   45.1600   29.6000   33.1000 C   0  0  0  0  0  0  0  0  0  0  0  0
   49.8000   27.7700   33.7300 N   0  0  0  0  0  0  0  0  0  0  0  0
   43.9600   36.0800   34.2600 O   0  0  0  0  0  0  0  0  0  0  0  0
   47.6700   34.9000   39.0500 C   0  0  0  0  0  0  0  0  0  0  0  0
   47.7100   35.0800   37.6900 N   0  0  0  0  0  0  0  0  0  0  0  0
   45.7800   37.8100   33.6200 O   0  0  0  0  0  0  0  0  0  0  0  0
   48.5400   34.5100   34.4900 C   0  0  0  0  0  0  0  0  0  0  0  0
   47.9200   27.9000   32.5400 N   0  0  0  0  0  0  0  0  0  0  0  0
   44.7900   35.7500   32.2900 O   0  0  0  0  0  0  0  0  0  0  0  0
   45.6500   30.5100   31.9600 C   0  0  0  0  0  0  0  0  0  0  0  0
   46.3800   35.1700   33.8400 O   0  0  0  0  0  0  0  0  0  0  0  0
   48.3000   26.5900   32.5300 C   0  0  0  0  0  0  0  0  0  0  0  0
   44.3200   36.7000   29.8600 O   0  0  0  0  0  0  0  0  0  0  0  0
   46.3600   35.3300   39.5700 C   0  0  0  0  0  0  0  0  0  0  0  0
   46.5800   37.1600   30.8300 O   0  0  0  0  0  0  0  0  0  0  0  0
   47.7600   35.1400   33.2800 C   0  0  0  0  0  0  0  0  0  0  0  0
   45.7700   35.2600   29.8800 O   0  0  0  0  0  0  0  0  0  0  0  0
   45.9000   31.8000   32.2200 C   0  0  0  0  0  0  0  0  0  0  0  0
   44.3300   33.1500   30.0900 O   0  0  0  0  0  0  0  0  0  0  0  0
   49.5600   26.3800   33.3100 C   0  0  0  0  0  0  0  0  0  0  0  0
   46.2500   33.2700   28.6300 O   0  0  0  0  0  0  0  0  0  0  0  0
   46.1300   35.1900   41.1200 C   0  0  0  0  0  0  0  0  0  0  0  0
   46.4000   32.5800   30.8800 O   0  0  0  0  0  0  0  0  0  0  0  0
   50.1100   25.1400   33.4200 C   0  0  0  0  0  0  0  0  0  0  0  0
   44.1300   36.3500   38.6200 C   0  0  0  0  0  0  0  0  0  0  0  0
   46.3800   35.6300   37.5000 C   0  0  0  0  0  0  0  0  0  0  0  0
   48.8700   28.6000   33.2900 C   0  0  0  0  0  0  0  0  0  0  0  0
   44.8300   29.6700   30.9400 C   0  0  0  0  0  0  0  0  0  0  0  0
   47.0600   34.5600   42.8800 H   0  0  0  0  0  0  0  0  0  0  0  0
   46.0500   35.9100   36.5000 H   0  0  0  0  0  0  0  0  0  0  0  0
   48.8500   29.6700   33.4900 H   0  0  0  0  0  0  0  0  0  0  0  0
   47.6800   23.3600   31.5000 H   0  0  0  0  0  0  0  0  0  0  0  0
   46.5100   27.5600   30.9500 H   0  0  0  0  0  0  0  0  0  0  0  0
   48.6400   32.6000   37.2500 H   0  0  0  0  0  0  0  0  0  0  0  0
   45.3400   27.3900   33.3100 H   0  0  0  0  0  0  0  0  0  0  0  0
   50.3900   33.4400   41.7100 H   0  0  0  0  0  0  0  0  0  0  0  0
   49.6700   35.1400   37.2900 H   0  0  0  0  0  0  0  0  0  0  0  0
   49.3700   33.6300   43.1100 H   0  0  0  0  0  0  0  0  0  0  0  0
   50.6900   33.4400   35.5100 H   0  0  0  0  0  0  0  0  0  0  0  0
   43.9000   30.2200   30.8000 H   0  0  0  0  0  0  0  0  0  0  0  0
   47.2000   32.9700   35.2800 H   0  0  0  0  0  0  0  0  0  0  0  0
   45.7500   29.7500   34.0000 H   0  0  0  0  0  0  0  0  0  0  0  0
   48.6600   32.1600   33.5300 H   0  0  0  0  0  0  0  0  0  0  0  0
   43.5600   30.8000   33.2900 H   0  0  0  0  0  0  0  0  0  0  0  0
   49.4400   34.2400   33.9400 H   0  0  0  0  0  0  0  0  0  0  0  0
   45.4400   29.5700   30.0400 H   0  0  0  0  0  0  0  0  0  0  0  0
   47.8500   34.6000   32.3400 H   0  0  0  0  0  0  0  0  0  0  0  0
   48.1200   36.1400   33.0500 H   0  0  0  0  0  0  0  0  0  0  0  0
   46.6900   31.8600   32.9700 H   0  0  0  0  0  0  0  0  0  0  0  0
   44.9900   32.2800   32.5900 H   0  0  0  0  0  0  0  0  0  0  0  0
   51.6900   25.6200   34.5400 H   0  0  0  0  0  0  0  0  0  0  0  0
   51.5400   23.9300   34.1200 H   0  0  0  0  0  0  0  0  0  0  0  0
   43.4600   35.6100   39.0700 H   0  0  0  0  0  0  0  0  0  0  0  0
   44.1000   37.2600   39.2100 H   0  0  0  0  0  0  0  0  0  0  0  0
   43.7900   36.5700   37.6100 H   0  0  0  0  0  0  0  0  0  0  0  0
  1 27  1  0  0  0  0
  1 30  1  0  0  0  0
  1 33  1  0  0  0  0
  1 35  1  0  0  0  0
  2 33  1  0  0  0  0
  2 37  1  0  0  0  0
  2 39  1  0  0  0  0
  2 41  1  0  0  0  0
  3 41  1  0  0  0  0
  3 43  1  0  0  0  0
  3 45  1  0  0  0  0
  3 47  1  0  0  0  0
  4 13  1  0  0  0  0
  4 18  1  0  0  0  0
  4 29  1  0  0  0  0
  4 61  1  0  0  0  0
  5 10  1  0  0  0  0
  5 46  1  0  0  0  0
  5 53  1  0  0  0  0
  6 63  1  0  0  0  0
  7 16  1  0  0  0  0
  7 21  1  0  0  0  0
  7 32  1  0  0  0  0
  7 57  1  0  0  0  0
  8 19  1  0  0  0  0
  8 48  1  0  0  0  0
  9 52  1  0  0  0  0
 10 11  1  0  0  0  0
 10 14  1  0  0  0  0
 11 60  1  0  0  0  0
 11 62  1  0  0  0  0
 12 67  1  0  0  0  0
  6 13  1  0  0  0  0
 13 22  1  0  0  0  0
 13 58  1  0  0  0  0
 14 28  1  0  0  0  0
 15 68  1  0  0  0  0
  9 16  1  0  0  0  0
 16 25  1  0  0  0  0
 16 59  1  0  0  0  0
 17 36  1  0  0  0  0
 17 19  1  0  0  0  0
 19 56  1  0  0  0  0
 20 75  1  0  0  0  0
 20 76  1  0  0  0  0
 12 22  1  0  0  0  0
 22 31  1  0  0  0  0
 22 65  1  0  0  0  0
 23 50  1  0  0  0  0
 15 25  1  0  0  0  0
 25 34  1  0  0  0  0
 25 66  1  0  0  0  0
 26 51  1  0  0  0  0
 28 29  1  0  0  0  0
 28 38  1  0  0  0  0
 18 31  1  0  0  0  0
 31 40  1  0  0  0  0
 31 69  1  0  0  0  0
 21 34  1  0  0  0  0
 34 42  1  0  0  0  0
 34 52  1  0  0  0  0
 32 36  1  0  0  0  0
 36 44  1  0  0  0  0
 23 38  1  0  0  0  0
 38 46  1  0  0  0  0
 35 40  1  0  0  0  0
 40 71  1  0  0  0  0
 40 72  1  0  0  0  0
 42 47  1  0  0  0  0
 42 73  1  0  0  0  0
 42 74  1  0  0  0  0
 26 44  1  0  0  0  0
 44 48  1  0  0  0  0
 24 46  1  0  0  0  0
 20 48  1  0  0  0  0
 23 49  1  0  0  0  0
 49 77  1  0  0  0  0
 49 78  1  0  0  0  0
 49 79  1  0  0  0  0
 29 50  1  0  0  0  0
 50 54  1  0  0  0  0
 32 51  1  0  0  0  0
 51 55  1  0  0  0  0
 52 64  1  0  0  0  0
 52 70  1  0  0  0  0
M  END
